Info: SIMULATION PARAMETERS:
Info: TIMESTEP               2
Info: NUMBER OF STEPS        0
Info: STEPS PER CYCLE        10
Info: PERIODIC CELL BASIS 1  23 0 0
Info: PERIODIC CELL BASIS 2  0 19.919 0
Info: PERIODIC CELL BASIS 3  0 0 52
Info: PERIODIC CELL CENTER   0 0 0
Info: WRAPPING WATERS AROUND PERIODIC BOUNDARIES ON OUTPUT.
Info: WRAPPING ALL CLUSTERS AROUND PERIODIC BOUNDARIES ON OUTPUT.
Info: FIRST LDB TIMESTEP     50
Info: LAST LDB TIMESTEP     -1
Info: HOM BACKGROUND SCALING 1
Info: PME BACKGROUND SCALING 1
Info: MIN ATOMS PER PATCH    40
Info: INITIAL TEMPERATURE    300
Info: CENTER OF MASS MOVING INITIALLY? NO
Info: DIELECTRIC             1
Info: EXCLUDE                SCALED ONE-FOUR
Info: 1-4 ELECTROSTATICS SCALED BY 1
Info: MODIFIED 1-4 VDW PARAMETERS WILL BE USED
Info: DCD FILENAME           MDequil.dcd
Info: DCD FREQUENCY          5000
Info: DCD FIRST STEP         5000
Info: DCD FILE WILL CONTAIN UNIT CELL DATA
Info: XST FILENAME           MDequil.xst
Info: XST FREQUENCY          5000
Info: NO VELOCITY DCD OUTPUT
Info: NO FORCE DCD OUTPUT
Info: OUTPUT FILENAME        MDequil
Info: BINARY OUTPUT FILES WILL BE USED
Info: RESTART FILENAME       MDequil.restart
Info: RESTART FREQUENCY      50000
Info: BINARY RESTART FILES WILL BE USED
Info: SWITCHING ACTIVE
Info: SWITCHING ON           10
Info: SWITCHING OFF          12
Info: PAIRLIST DISTANCE      14
Info: PAIRLIST SHRINK RATE   0.01
Info: PAIRLIST GROW RATE     0.01
Info: PAIRLIST TRIGGER       0.3
Info: PAIRLISTS PER CYCLE    2
Info: PAIRLISTS ENABLED
Info: MARGIN                 0.99
Info: HYDROGEN GROUP CUTOFF  2.5
Info: PATCH DIMENSION        17.49
Info: ENERGY OUTPUT STEPS    5000
Info: CROSSTERM ENERGY INCLUDED IN DIHEDRAL
Info: TIMING OUTPUT STEPS    50000
Info: PRESSURE OUTPUT STEPS  5000
Info: FIXED ATOMS ACTIVE
Info: LANGEVIN DYNAMICS ACTIVE
Info: LANGEVIN TEMPERATURE   300
Info: LANGEVIN USING BBK INTEGRATOR
Info: LANGEVIN DAMPING COEFFICIENT IS 1 INVERSE PS
Info: LANGEVIN DYNAMICS NOT APPLIED TO HYDROGENS
Info: LANGEVIN PISTON PRESSURE CONTROL ACTIVE
Info:        TARGET PRESSURE IS 1.01325 BAR
Info:     OSCILLATION PERIOD IS 200 FS
Info:             DECAY TIME IS 100 FS
Info:     PISTON TEMPERATURE IS 300 K
Info:       PRESSURE CONTROL IS GROUP-BASED
Info:    INITIAL STRAIN RATE IS 0 0 0
Info:       CELL FLUCTUATION IS ANISOTROPIC
Info:     CONSTANT AREA PRESSURE CONTROL ACTIVE
Info: PARTICLE MESH EWALD (PME) ACTIVE
Info: PME TOLERANCE               1e-06
Info: PME EWALD COEFFICIENT       0.257952
Info: PME INTERPOLATION ORDER     4
Info: PME GRID DIMENSIONS         24 20 54
Info: PME MAXIMUM GRID SPACING    1
Info: FULL ELECTROSTATIC EVALUATION FREQUENCY      2
Info: USING VERLET I (r-RESPA) MTS SCHEME.
Info: C1 SPLITTING OF LONG RANGE ELECTROSTATICS
Info: PLACING ATOMS IN PATCHES BY HYDROGEN GROUPS
Info: RIGID BONDS TO HYDROGEN : ALL
Info:         ERROR TOLERANCE : 1e-08
Info:          MAX ITERATIONS : 100
Info: RIGID WATER USING SETTLE ALGORITHM
Info: RANDOM NUMBER SEED     1715099681
Info: USE HYDROGEN BONDS?    NO
Info: COORDINATE PDB         ../input/system.pdb
Info: STRUCTURE FILE         ../input/system.psf
Info: PARAMETER file: CHARMM format!
Info: PARAMETERS             ../input/par_nanotubes.inp
Info: PARAMETERS             ../input/par_water_ions.inp
Info: USING ARITHMETIC MEAN TO COMBINE L-J SIGMA PARAMETERS
Info: SUMMARY OF PARAMETERS:
Info: 4 BONDS
Info: 2 ANGLES
Info: 1 DIHEDRAL
Info: 0 IMPROPER
Info: 0 CROSSTERM
Info: 16 VDW
Info: 2 VDW_PAIRS
Info: 0 NBTHOLE_PAIRS
Info: STRUCTURE SUMMARY:
Info: 2160 ATOMS
Info: 1872 BONDS
Info: 2064 ANGLES
Info: 2928 DIHEDRALS
Info: 0 IMPROPERS
Info: 0 CROSSTERMS
Info: 0 EXCLUSIONS
Info: 576 FIXED ATOMS
Info: 1584 RIGID BONDS
Info: 0 RIGID BONDS BETWEEN FIXED ATOMS
Info: 3168 DEGREES OF FREEDOM
Info: 1104 HYDROGEN GROUPS
Info: 3 ATOMS IN LARGEST HYDROGEN GROUP
Info: 1104 MIGRATION GROUPS
Info: 3 ATOMS IN LARGEST MIGRATION GROUP
Info: 576 HYDROGEN GROUPS WITH ALL ATOMS FIXED
Info: TOTAL MASS = 16430.5 amu
Info: TOTAL CHARGE = 0 e
Info: MASS DENSITY = 1.14528 g/cm^3
Info: ATOM DENSITY = 0.0906682 atoms/A^3
Info: ADDED 6144 IMPLICIT EXCLUSIONS
Info: NONBONDED TABLE R-SQUARED SPACING: 0.0625
Info: NONBONDED TABLE SIZE: 769 POINTS
Info: REMOVING COM VELOCITY -0.0555558 -0.0108072 0.102325
Info: Updated CUDA force table with 4096 elements.
Info: Updated CUDA LJ table with 16 x 16 elements.
Info: Found 4 unique exclusion lists needing 4 bytes
TCL: Minimizing for 5000 steps
ETITLE: TS BOND ANGLE DIHED IMPRP ELECT VDW BOUNDARY MISC KINETIC TOTAL TEMP POTENTIAL TOTAL3 TEMPAVG PRESSURE GPRESSURE VOLUME PRESSAVG GPRESSAVG
ENERGY: 0 0.0000 0.0000 0.0000 0.0000 -4310.2448 2464846.5718 0.0000 0.0000 0.0000 2460536.3269 0.0000 2460536.3269 2460536.3269 0.0000 23274601.3649 23615682.7505 23823.1240 23274601.3649 23615682.7505
ENERGY: 1000 0.0000 0.0000 0.0000 0.0000 -7175.7717 826.1586 0.0000 0.0000 0.0000 -6349.6131 0.0000 -6349.6131 -6349.6131 0.0000 -117.9601 -18355.5575 23823.1240 -117.9601 -18355.5575
ENERGY: 2000 0.0000 0.0000 0.0000 0.0000 -7241.5552 850.9066 0.0000 0.0000 0.0000 -6390.6486 0.0000 -6390.6486 -6390.6486 0.0000 -94.0139 -18515.6362 23823.1240 -94.0139 -18515.6362
ENERGY: 3000 0.0000 0.0000 0.0000 0.0000 -7250.2725 855.8017 0.0000 0.0000 0.0000 -6394.4707 0.0000 -6394.4707 -6394.4707 0.0000 -94.8401 -18543.3098 23823.1240 -94.8401 -18543.3098
ENERGY: 4000 0.0000 0.0000 0.0000 0.0000 -7250.8312 856.3432 0.0000 0.0000 0.0000 -6394.4880 0.0000 -6394.4880 -6394.4880 0.0000 -93.9813 -18543.5765 23823.1240 -93.9813 -18543.5765
ENERGY: 5000 0.0000 0.0000 0.0000 0.0000 -7250.9571 856.4461 0.0000 0.0000 0.0000 -6394.5110 0.0000 -6394.5110 -6394.5110 0.0000 -93.5680 -18543.5831 23823.1240 -93.5680 -18543.5831
TCL: Running for 250000 steps
ETITLE: TS BOND ANGLE DIHED IMPRP ELECT VDW BOUNDARY MISC KINETIC TOTAL TEMP POTENTIAL TOTAL3 TEMPAVG PRESSURE GPRESSURE VOLUME PRESSAVG GPRESSAVG
ENERGY: 5000 0.0000 0.0000 0.0000 0.0000 -7250.9571 856.4461 0.0000 0.0000 0.0000 -6394.5110 0.0000 -6394.5110 -6394.5247 0.0000 -1911.9162 -1893.9798 23823.1240 -1911.9162 -1893.9798
ENERGY: 55000 0.0000 0.0000 0.0000 0.0000 -5688.3742 474.5479 0.0000 0.0000 978.6376 -4235.1887 310.9046 -5213.8263 -4232.7921 299.5075 894.2750 914.6443 22727.0625 -174.7256 -174.6670
ENERGY: 105000 0.0000 0.0000 0.0000 0.0000 -5641.3506 386.7730 0.0000 0.0000 954.5048 -4300.0728 303.2378 -5254.5776 -4297.8494 296.8248 -322.7619 -309.0015 22401.9988 -227.5968 -227.5254
ENERGY: 155000 0.0000 0.0000 0.0000 0.0000 -5642.6466 396.0998 0.0000 0.0000 931.5823 -4314.9645 295.9555 -5246.5468 -4313.1697 298.2489 -188.4825 -159.0548 22659.2736 -208.8283 -208.7663
ENERGY: 205000 0.0000 0.0000 0.0000 0.0000 -5565.0575 359.4822 0.0000 0.0000 945.1321 -4260.4432 300.2602 -5205.5753 -4259.4637 301.0289 -448.2852 -427.4878 22912.7314 -200.6136 -200.7787
ENERGY: 255000 0.0000 0.0000 0.0000 0.0000 -5571.0862 389.8488 0.0000 0.0000 1004.8054 -4176.4320 319.2178 -5181.2373 -4173.0451 304.7601 -235.2824 -212.7579 22886.4255 -209.8047 -209.7597
